/batch
/config,noeldb,1     ! force off writing results to database
*get,_wallstrt,active,,time,wall
! ANSYS input file written by Workbench version 2022 R2
! File used for geometry attach: F:\¡œÀ¿_—ÍÓÎÚÂı\Ansys_Skoltech_UAV.x_t
/title,wbnew--Static Structural (A5)
! ****** Begin Custom Load Command Snippet ******
/COM, ACT Extensions:
/COM,     LSDYNA, 2022.2
/COM,     5f463412-bd3e-484b-87e7-cbc0a665e474, wbex
/COM,/COM,     ANSYSMotion, 2022.2
/COM,     20180725-3f81-49eb-9f31-41364844c769, wbex
/COM,
! ****** End   Custom Load Command Snippet ******
*DIM,_wb_ProjectScratch_dir,string,248
_wb_ProjectScratch_dir(1) = 'C:\Users\German27\AppData\Local\Temp\WB_German27_11960_2\_ProjectScratch\Scr1DE5\'
*DIM,_wb_SolverFiles_dir,string,248
_wb_SolverFiles_dir(1) = 'C:\Users\German27\AppData\Local\Temp\WB_German27_11960_2\wbnew_files\dp0\SYS\MECH\'
*DIM,_wb_userfiles_dir,string,248
_wb_userfiles_dir(1) = 'C:\Users\German27\AppData\Local\Temp\WB_German27_11960_2\wbnew_files\user_files\'
/com,--- Data in consistent MKS units. See Solving Units in the help system for more information.
/units,MKS
/nopr
/wb,file,start              !  signify a WB generated input file
/prep7
! Turn off shape checking because checks already performed inside WB mesher.
! See help system for more information.
SHPP,OFF,,NOWARN
/nolist
etcon,set             ! allow ANSYS to choose best KEYOP's for 180x elements, resets any applicable keyopt to MAPDL defaults
/com,*********** Nodes for the whole assembly ***********
nblock,3,,15077
(1i9,3e20.9e3)
        1     6.846062078E-03    -8.075299235E-02    -7.395798621E-02
        2    -6.747334867E-03    -8.082561974E-02    -7.382507195E-02
        3     7.754016877E-03    -7.752885510E-02    -7.680860489E-02
        4     4.456595470E-03    -7.521802308E-02    -7.882421888E-02
        5    -4.579027101E-03    -7.525992847E-02    -7.874206321E-02
        6    -7.788953123E-03    -7.761940438E-02    -7.665110755E-02
        7     4.073598789E-02    -8.130193676E-02    -7.453868298E-02
        8     2.944153506E-02    -8.102455275E-02    -7.431290089E-02
        9     1.814472904E-02    -8.083470804E-02    -7.411698935E-02
       10     3.825655067E-02    -7.833864445E-02    -7.667026526E-02
       11     3.897903938E-02    -8.007643616E-02    -7.538453492E-02
       12     5.112594554E-02    -8.161682811E-02    -7.476675109E-02
       13     5.413661765E-02    -7.914285799E-02    -7.651736817E-02
       14     5.404214515E-02    -7.742639651E-02    -7.763741944E-02
       15     5.276240918E-02    -7.598523081E-02    -7.857059872E-02
       16     4.451178134E-02    -7.444557856E-02    -7.960452079E-02
       17     4.042962842E-02    -7.552455452E-02    -7.880653824E-02
       18     7.667369701E-02    -8.253129135E-02    -7.537552428E-02
       19     6.510481455E-02    -8.210182809E-02    -7.509461747E-02
       20     7.662439461E-02    -7.373793567E-02    -7.982578875E-02
! ... 13688 like lines cut
/wb,elem,start            !  set before creation of elements
/com,*********** Elements for Body 1 "Part 1" ***********
et,1,187
eblock,19,solid,,6693
(19i9)
        1        1        1        1        0        0        0        0       10        0        1      219      447     2034     2369     4312     5867     4316     4318
     5868    12924
        1        1        1        1        0        0        0        0       10        0        2      219     1848     1849     2369     4314    12505     4315     4318
    12506    12507
        1        1        1        1        0        0        0        0       10        0        3      447     1848     2369     1849     5865    12506     5868     5866
    12505    12507
        1        1        1        1        0        0        0        0       10        0        4      917     2162     2368     1786     8986    13361     8987     8983
    12251    12255
        1        1        1        1        0        0        0        0       10        0        5      917     2062     2368     2162     8985    13044     8987     8986
    13042    13361
        1        1        1        1        0        0        0        0       10        0        6     1821     2368     2167     2306    12418    13372    12414    12417
    13660    13371
        1        1        1        1        0        0        0        0       10        0        7     1821     2368     2065     2167    12418    13053    12413    12414
    13372    13052
        1        1        1        1        0        0        0        0       10        0        8     2062     2368     2162     2163    13044    13361    13042    13043
    13363    13359
        1        1        1        1        0        0        0        0       10        0        9     1786     2162     2368     2163    12251    13361    12255    12252
    13359    13363
        1        1        1        1        0        0        0        0       10        0       10      920     2368     1821     1786     9002    12418     8998     8997
    12255    12248
! ... 13367 like lines cut
!Material Id = {FD5BD660-4FCE-4B73-9CB2-3CB46BB8E0DF}
/wb,elem,end               !  done creating elements
/com,*********** Send User Defined Coordinate System(s) ***********
csys,0
toffst,273.15,  ! Temperature offset from absolute zero
/com,*********** Set Reference Temperature ***********
tref,22.
/wb,mat,start              !  starting to send materials
/com,*********** Send Materials ***********
Temperature = 'TEMP' ! Temperature
MP,DENS,1,1030,	! kg m^-3
MP,EX,1,1628000000,	! Pa
MP,NUXY,1,0.4089,
MP,ALPX,1,0.000184,	! C^-1
MP,KXX,1,0.1997,	! W m^-1 C^-1
MP,C,1,1400,	! J kg^-1 C^-1
MP,UVID,1,d81c427c-62bd-4d82-8e19-fdf8e34f3492
MP,UMID,1,ed833b44-d437-43ce-8714-c0e565f08b60

/wb,mat,end                !  done sending materials
!************************* Model Summary ********************
!Part 1,	Plastic, ABS (high-impact),	matid,	1
!************************* End Model Summary ********************
! get the diagonal of the bounding box. Needed later for other things
*get,_xmin,node,,mnloc,x
*get,_ymin,node,,mnloc,y
*get,_zmin,node,,mnloc,z
*get,_xmax,node,,mxloc,x
*get,_ymax,node,,mxloc,y
*get,_zmax,node,,mxloc,z
_ASMDIAG=(_xmax-_xmin)*(_xmax-_xmin)+(_ymax-_ymin)*(_ymax-_ymin)+(_zmax-_zmin)*(_zmax-_zmin)
_ASMDIAG=SQRT(_ASMDIAG)
/wb,contact,start          !  starting to send contact
/wb,contact,end            !  done creating contacts
/golist
/wb,load,start             !  starting to send loads
/com,******* Constant Zero Displacement X *******
CMBLOCK,_DISPZEROUX,NODE,      315
(8i10)
       107       108       109       110       111       112       113       114
       115       116       117       118       119       145       147       148
       149       150       151       152       153       154       155       156
       176       177       178       179       180       181       182       183
       184       185       186       187       188       208       209       210
       211       212       213       214       215       216       217       218
       424       425       426       427       428       440       441       442
       443       444      1194      1195      1196      1197      1198      1199
      1200      1201      1213      1214      1215      1216      1217      1218
      1219      1232      1233      1234      1235      1236      1237      1238
      1239      1248      1249      1250      1251      1252      1253      1254
      2075      2076      2077      2078      2079      2080      2081      2082
      2083      2084      2085      2086      2417      2418      2419      3342
      3347      3348      3351      3352      3353      3354      3355      3359
      3360      3366      3367      3372      3376      3377      3379      3382
      3383      3385      3386      3387      3392      3393      3394      3395
      3399      3400      3404      3405      3409      3410      3411      3414
      3416      3417      3418      3422      3423      3428      3429      3432
      3434      3439      3441      3442      3443      3444      3447      3662
      3663      3667      3678      3682      3683      3692      3693      3696
! ... 20 like lines cut
cmsel,s,_DISPZEROUX
d,all,ux,0
nsel,all
/com,******* Constant Zero Displacement Y *******
CMBLOCK,_DISPZEROUY,NODE,      315
(8i10)
       107       108       109       110       111       112       113       114
       115       116       117       118       119       145       147       148
       149       150       151       152       153       154       155       156
       176       177       178       179       180       181       182       183
       184       185       186       187       188       208       209       210
       211       212       213       214       215       216       217       218
       424       425       426       427       428       440       441       442
       443       444      1194      1195      1196      1197      1198      1199
      1200      1201      1213      1214      1215      1216      1217      1218
      1219      1232      1233      1234      1235      1236      1237      1238
      1239      1248      1249      1250      1251      1252      1253      1254
      2075      2076      2077      2078      2079      2080      2081      2082
      2083      2084      2085      2086      2417      2418      2419      3342
      3347      3348      3351      3352      3353      3354      3355      3359
      3360      3366      3367      3372      3376      3377      3379      3382
      3383      3385      3386      3387      3392      3393      3394      3395
      3399      3400      3404      3405      3409      3410      3411      3414
      3416      3417      3418      3422      3423      3428      3429      3432
      3434      3439      3441      3442      3443      3444      3447      3662
      3663      3667      3678      3682      3683      3692      3693      3696
! ... 20 like lines cut
cmsel,s,_DISPZEROUY
d,all,uy,0
nsel,all
/com,******* Constant Zero Displacement Z *******
CMBLOCK,_DISPZEROUZ,NODE,      315
(8i10)
       107       108       109       110       111       112       113       114
       115       116       117       118       119       145       147       148
       149       150       151       152       153       154       155       156
       176       177       178       179       180       181       182       183
       184       185       186       187       188       208       209       210
       211       212       213       214       215       216       217       218
       424       425       426       427       428       440       441       442
       443       444      1194      1195      1196      1197      1198      1199
      1200      1201      1213      1214      1215      1216      1217      1218
      1219      1232      1233      1234      1235      1236      1237      1238
      1239      1248      1249      1250      1251      1252      1253      1254
      2075      2076      2077      2078      2079      2080      2081      2082
      2083      2084      2085      2086      2417      2418      2419      3342
      3347      3348      3351      3352      3353      3354      3355      3359
      3360      3366      3367      3372      3376      3377      3379      3382
      3383      3385      3386      3387      3392      3393      3394      3395
      3399      3400      3404      3405      3409      3410      3411      3414
      3416      3417      3418      3422      3423      3428      3429      3432
      3434      3439      3441      3442      3443      3444      3447      3662
      3663      3667      3678      3682      3683      3692      3693      3696
! ... 20 like lines cut
cmsel,s,_DISPZEROUZ
d,all,uz,0
nsel,all
/com,*********** Define Force Using Surface Effect Elements ***********
local,12,0,0.,0.,0.,0.,0.,0.
csys,0
et,2,154
eblock,10,,,5
(15i9)
    10998        2        2        2       12      406      586     1034     1034     5640     6853     1034     5641
    10999        2        2        2       12       78     1034      587      587     3078     6857      587     3075
    11000        2        2        2       12       78      587      588      588     3075     6856      588     3076
    11001        2        2        2       12      586      587     1034     1034     6852     6857     1034     6853
    11002        2        2        2       12       78      588      416      416     3076     5706      416     3074
-1
esel,s,type,,2
keyop,2,2,1                ! Apply load in local coordinate system
keyop,2,7,1                ! Use original area so load is constant in large deformation
esel,all
/com,*********** Define Force Using Surface Effect Elements ***********
local,13,0,0.,0.,0.,0.,0.,0.
csys,0
et,3,154
eblock,10,,,5
(15i9)
    11003        3        3        3       13      381     1035      497      497     5480     6212      497     5479
    11004        3        3        3       13       24      486      498      498     2612     6138      498     2613
    11005        3        3        3       13       24      498     1035     1035     2613     6215     1035     2615
    11006        3        3        3       13       24      372      486      486     2611     5413      486     2612
    11007        3        3        3       13      497     1035      498      498     6212     6215      498     6211
-1
esel,s,type,,3
keyop,3,2,1                ! Apply load in local coordinate system
keyop,3,7,1                ! Use original area so load is constant in large deformation
esel,all
/com,*********** Define Force Using Surface Effect Elements ***********
local,14,0,0.,0.,0.,0.,0.,0.
csys,0
et,4,154
eblock,10,,,11
(15i9)
    11008        4        4        4       14     1036       77     1663     1663     3065     3066     1663     9467
    11009        4        4        4       14      400     1663       77       77     5599     3066       77     3064
    11010        4        4        4       14     1661      565     1662     1662     6722     6723     1662    11890
    11011        4        4        4       14      576      577     1662     1662     6798     6804     1662     6800
    11012        4        4        4       14     1036     1663     1661     1661     9467    11891     1661     9465
    11013        4        4        4       14      577      407     1431     1431     5645     5647     1431     6803
    11014        4        4        4       14     1431     1036     1662     1662     9464     9466     1662    11026
    11015        4        4        4       14     1661     1663      400      400    11891     5599      400     5598
    11016        4        4        4       14     1662      565      576      576     6723     6719      576     6800
    11017        4        4        4       14     1662     1036     1661     1661     9466     9465     1661    11890
    11018        4        4        4       14     1662      577     1431     1431     6804     6803     1431    11026
-1
esel,s,type,,4
keyop,4,2,1                ! Apply load in local coordinate system
keyop,4,7,1                ! Use original area so load is constant in large deformation
esel,all
/com,*********** Define Force Using Surface Effect Elements ***********
local,15,0,0.,0.,0.,0.,0.,0.
csys,0
et,5,154
eblock,10,,,11
(15i9)
    11019        5        5        5       15      509      508     1666     1666     6288     6291     1666     6296
    11020        5        5        5       15      508      510     1666     1666     6289     6303     1666     6291
    11021        5        5        5       15       25     1037     1665     1665     2627     9475     1665     2628
    11022        5        5        5       15     1664      388     1665     1665     5524     5525     1665    11906
    11023        5        5        5       15      510     1664     1666     1666     6302    11907     1666     6303
    11024        5        5        5       15     1037     1432     1666     1666     9474    11028     1666     9476
    11025        5        5        5       15     1666     1664     1665     1665    11907    11906     1665    11916
    11026        5        5        5       15     1665      388       25       25     5525     2626       25     2628
    11027        5        5        5       15      509     1666     1432     1432     6296    11028     1432     6295
    11028        5        5        5       15      380      509     1432     1432     5472     6295     1432     5474
    11029        5        5        5       15     1665     1037     1666     1666     9475     9476     1666    11916
-1
esel,s,type,,5
keyop,5,2,1                ! Apply load in local coordinate system
keyop,5,7,1                ! Use original area so load is constant in large deformation
esel,all
/gst,on,on
fini
*get,_numnode,node,0,count
*get,_numelem,elem,0,count
*get, _MAXELEMNUM, elem, 0, NUM, MAX
*get, _MAXNODENUM, node, 0, NUM, MAX
*get, _MAXELEMTYPE, etyp, 0, NUM, MAX
*get, _MAXREALCONST, rcon, 0, NUM, MAX
/go
/wb,load,end               !  done creating loads
/com,--- Number of total nodes = %_numnode%
/com,--- Number of contact elements = 32
/com,--- Number of spring elements = 0
/com,--- Number of bearing elements = 0
/com,--- Number of solid elements = 6693
/com,--- Number of condensed parts = 0
/com,--- Number of total elements = %_numelem%
*get,_wallbsol,active,,time,wall
/com,****************************************************************************
/com,*************************    SOLUTION       ********************************
/com,****************************************************************************
/solu
antype,0                   ! static analysis
_thickRatio=  0     ! Ratio of thick parts in the model
eqsl,sparse,,,,,1
cntr,print,1               ! print out contact info and also make no initial contact an error
dmpoption,emat,no             ! Don't combine emat file for DANSYS
dmpoption,esav,no             ! Don't combine esav file for DANSYS
nldiag,cont,iter           ! print out contact info each equilibrium iteration
rescontrol,,none                 ! Do not keep any restart files
/com,****************************************************
/com,******************* SOLVE FOR LS 1 OF 1 ****************
esel,s,type,,2
nsle
sfe,all,1,pres,1,2036.45238616413
sfe,all,2,pres,1,-1770.08621826655
sfe,all,3,pres,1,4119.46096210149
esel,s,type,,3
nsle
sfe,all,1,pres,1,2036.54790368737
sfe,all,2,pres,1,-1770.16924218238
sfe,all,3,pres,1,-4119.65418081402
esel,s,type,,4
nsle
sfe,all,1,pres,1,-1501.09673133903
sfe,all,2,pres,1,-1447.45968851933
sfe,all,3,pres,1,2808.42571276758
esel,s,type,,5
nsle
sfe,all,1,pres,1,-1499.62565974142
sfe,all,2,pres,1,-1449.56631592884
sfe,all,3,pres,1,-2807.43181467131
nsel,all
esel,all
/nopr
/gopr
nsub,1,1,1
time,1.
outres,erase
outres,all,none
outres,nsol,all,
outres,rsol,all
outres,eangl,all
outres,etmp,all
outres,veng,all
outres,strs,all,
outres,epel,all,
outres,eppl,all,
outres,cont,all,
! *********** WB SOLVE COMMAND ***********
! check interactive state
*get,ANSINTER_,active,,int
*if,ANSINTER_,ne,0,then
/eof
*endif
solve
/com *************** Write FE CONNECTORS ********* 
CEWRITE,file,ce,,INTE
/com,****************************************************
/com,*************** FINISHED SOLVE FOR LS 1 *************
*get,_wallasol,active,,time,wall
/nopr
*get,_numnode,node,0,count
*get,_numelem,elem,0,count
*get, _MAXELEMNUM, elem, 0, NUM, MAX
*get, _MAXNODENUM, node, 0, NUM, MAX,,,INTERNAL
*get, _MAXELEMTYPE, etyp, 0, NUM, MAX
*get, _MAXREALCONST, rcon, 0, NUM, MAX
*get,_NSOLTHREADS,active,0,ntfs
*get,_NSOLPROCESSES,active,0,npfs
/gopr
/post1
xmlo,ENCODING,ISO-8859-1
xmlo,parm
/xml,parm,xml
fini
/gopr
*get,_walldone,active,,time,wall
_preptime=(_wallbsol-_wallstrt)*3600
_solvtime=(_wallasol-_wallbsol)*3600
_posttime=(_walldone-_wallasol)*3600
_totaltim=(_walldone-_wallstrt)*3600
*get,_dlbratio,active,0,solu,dlbr
*get,_combtime,active,0,solu,comb
*get,_ssmode,active,0,solu,ssmm
*get,_ndofs,active,0,solu,ndof
*get,_sol_end_time,active,0,set,time
*if,_sol_end_time,eq,1.000000,then
/fclean				!clean distributed files
*endif
/com,--- Total number of nodes = %_numnode%
/com,--- Total number of elements = %_numelem%
/com,--- Element load balance ratio = %_dlbratio%
/com,--- Time to combine distributed files = %_combtime%
/com,--- Sparse memory mode = %_ssmode%
/com,--- Number of DOF = %_ndofs%
/wb,file,end               ! done with WB generated input
