/batch
/config,noeldb,1     ! force off writing results to database
*get,_wallstrt,active,,time,wall
! ANSYS input file written by Workbench version 2022 R2
! File used for geometry attach: C:\Users\German27\AppData\Local\Temp\WB_German27_9124_2\wbnew_files\dp0\SYS\DM\SYS.agdb
/title,wbnew--Static Structural (A5)
! ****** Begin Custom Load Command Snippet ******
/COM, ACT Extensions:
/COM,     LSDYNA, 2022.2
/COM,     5f463412-bd3e-484b-87e7-cbc0a665e474, wbex
/COM,/COM,     ANSYSMotion, 2022.2
/COM,     20180725-3f81-49eb-9f31-41364844c769, wbex
/COM,
! ****** End   Custom Load Command Snippet ******
*DIM,_wb_ProjectScratch_dir,string,248
_wb_ProjectScratch_dir(1) = 'C:\Users\German27\AppData\Local\Temp\WB_German27_9124_2\_ProjectScratch\Scr0987\'
*DIM,_wb_SolverFiles_dir,string,248
_wb_SolverFiles_dir(1) = 'C:\Users\German27\AppData\Local\Temp\WB_German27_9124_2\wbnew_files\dp0\SYS\MECH\'
*DIM,_wb_userfiles_dir,string,248
_wb_userfiles_dir(1) = 'C:\Users\German27\AppData\Local\Temp\WB_German27_9124_2\wbnew_files\user_files\'
/com,--- Data in consistent MKS units. See Solving Units in the help system for more information.
/units,MKS
/nopr
/wb,file,start              !  signify a WB generated input file
/prep7
! Turn off shape checking because checks already performed inside WB mesher.
! See help system for more information.
SHPP,OFF,,NOWARN
/nolist
etcon,set             ! allow ANSYS to choose best KEYOP's for 180x elements, resets any applicable keyopt to MAPDL defaults
/com,*********** Nodes for the whole assembly ***********
nblock,3,,7883
(1i9,3e20.9e3)
        1    -1.452422452E-02     2.700000000E-03    -3.250000000E-02
        2    -2.588835488E-02     2.700000000E-03    -3.770936462E-02
        3    -3.332657681E-02     2.700000000E-03    -4.634301507E-02
        4    -4.134613836E-02     2.700000000E-03    -4.731879050E-02
        5    -3.714752726E-02     2.700000000E-03    -4.838283408E-02
        6    -4.099976092E-02     2.700000000E-03    -3.992862694E-02
        7    -4.244752921E-02     2.700000000E-03    -4.356396909E-02
        8    -3.163586964E-02     2.700000000E-03    -2.905982456E-02
        9    -3.631781528E-02     2.700000000E-03    -3.449422575E-02
       10    -2.800000000E-02     2.700000000E-03    -1.926918917E-02
       11    -2.800000000E-02     2.700000000E-03     1.926918917E-02
       12    -2.800000000E-02     2.700000000E-03    -6.423063058E-03
       13    -2.800000000E-02     2.700000000E-03     6.423063058E-03
       14    -3.163586964E-02     2.700000000E-03     2.905982456E-02
       15    -4.099976092E-02     2.700000000E-03     3.992862694E-02
       16    -3.631781528E-02     2.700000000E-03     3.449422575E-02
       17    -4.134613836E-02     2.700000000E-03     4.731879050E-02
       18    -4.244752921E-02     2.700000000E-03     4.356396909E-02
       19    -3.332657681E-02     2.700000000E-03     4.634301507E-02
       20    -3.714752726E-02     2.700000000E-03     4.838283408E-02
! ... 7148 like lines cut
/wb,elem,start            !  set before creation of elements
/com,*********** Elements for Body 1 "Solid" ***********
et,1,187
eblock,19,solid,,3486
(19i9)
        1        1        1        1        0        0        0        0       10        0        1      450     1180      486     1159     4140     4440     4134     4139
     7041     4439
        1        1        1        1        0        0        0        0       10        0        2      737      785     1180     1159     5517     5689     5523     5522
     5688     7041
        1        1        1        1        0        0        0        0       10        0        3      477      486      749     1180     4367     4438     4370     4374
     4440     5576
        1        1        1        1        0        0        0        0       10        0        4      740      786     1180      787     5535     5691     5537     5536
     5690     5693
        1        1        1        1        0        0        0        0       10        0        5      737     1180      800     1159     5523     5735     5520     5522
     7041     5734
        1        1        1        1        0        0        0        0       10        0        6      459      800     1180     1159     4212     5735     4215     4214
     5734     7041
        1        1        1        1        0        0        0        0       10        0        7      450      459     1180     1159     4133     4215     4140     4139
     4214     7041
        1        1        1        1        0        0        0        0       10        0        8      468     1180      786      787     4287     5691     4283     4284
     5693     5690
        1        1        1        1        0        0        0        0       10        0        9      459     1180      800      801     4215     5735     4212     4213
     5737     5733
        1        1        1        1        0        0        0        0       10        0       10      737      800     1180      801     5520     5735     5523     5521
     5733     5737
! ... 6953 like lines cut
!Material Id = {A2981FFC-30FA-4AB1-9716-76E5FC488145}
/wb,elem,end               !  done creating elements
/com,*********** Send User Defined Coordinate System(s) ***********
csys,0
toffst,273.15,  ! Temperature offset from absolute zero
/com,*********** Set Reference Temperature ***********
tref,22.
/wb,mat,start              !  starting to send materials
/com,*********** Send Materials ***********
Temperature = 'TEMP' ! Temperature
MP,DENS,1,7850,	! kg m^-3
MP,ALPX,1,1.2e-05,	! C^-1
MP,C,1,434,	! J kg^-1 C^-1
MP,KXX,1,60.5,	! W m^-1 C^-1
MP,RSVX,1,1.7e-07,	! kg m^3 A^-2 s^-3
MP,EX,1,200000000000,	! Pa
MP,NUXY,1,0.3,
MP,MURX,1,10000,
MP,UVID,1,42e981c7-23ed-4a29-a9e1-bee90c7f9187
MP,UMID,1,59002a79-71c2-428e-906b-55d7dbee100e

/wb,mat,end                !  done sending materials
!************************* Model Summary ********************
!Solid,	Structural Steel,	matid,	1
!************************* End Model Summary ********************
! get the diagonal of the bounding box. Needed later for other things
*get,_xmin,node,,mnloc,x
*get,_ymin,node,,mnloc,y
*get,_zmin,node,,mnloc,z
*get,_xmax,node,,mxloc,x
*get,_ymax,node,,mxloc,y
*get,_zmax,node,,mxloc,z
_ASMDIAG=(_xmax-_xmin)*(_xmax-_xmin)+(_ymax-_ymin)*(_ymax-_ymin)+(_zmax-_zmin)*(_zmax-_zmin)
_ASMDIAG=SQRT(_ASMDIAG)
/wb,contact,start          !  starting to send contact
/wb,contact,end            !  done creating contacts
/golist
/wb,load,start             !  starting to send loads
/com,*********** Fixed Supports ***********
CMBLOCK,_FIXEDSU,NODE,     1424
(8i10)
         1         2         3         4         5         6         7         8
         9        10        11        12        13        14        15        16
        17        18        19        20        21        22        23        24
        25        26        27        28        29        30        31        32
        33        34        35        36        37        38        39        40
        41        42        43        44        45        46        47        48
        49        50        51        52        53        54        55        56
        57        58        59        60        61        62        63        64
        65        66        67        68        69        70        71        72
        73        74        75        76        77        78        79        80
        81        82        83        84        85        86        87        88
        89        90        91        92        93        94        95        96
        97        98        99       100       101       102       103       104
       105       106       107       108       109       110       111       112
       113       114       115       116       117       118       119       120
       121       122       123       124       125       126       127       128
       129       130       131       132       133       134       135       136
       137       138       139       140       141       142       143       144
       145       146       147       148       149       150       151       152
       153       154       155       156       157       158       159       160
! ... 158 like lines cut

cmsel,s,_FIXEDSU
d,all,all
nsel,all
/com,*********** Define Force Using Surface Effect Elements ***********
local,12,0,0.,0.,0.,0.,0.,0.
csys,0
et,2,154
eblock,10,,,43
(15i9)
     5677        2        2        2       12      964      966      968      968     6379     6389      968     6380
     5678        2        2        2       12      959      967      969      969     6358     6393      969     6359
     5679        2        2        2       12      965      969      970      970     6383     6397      970     6384
     5680        2        2        2       12      956      517      961      961     4645     4646      961     6344
     5681        2        2        2       12      517      955      961      961     4644     6339      961     4646
     5682        2        2        2       12      519      957      962      962     4659     6347      962     4661
     5683        2        2        2       12      956      961      965      965     6344     6367      965     6345
     5684        2        2        2       12      958      519      962      962     4660     4661      962     6351
     5685        2        2        2       12      958      962      966      966     6351     6372      966     6353
     5686        2        2        2       12      955      959      961      961     6338     6356      961     6339
     5687        2        2        2       12      967      968      966      966     6392     6389      966     6388
     5688        2        2        2       12      524      525      959      959     4687     4693      959     4690
     5689        2        2        2       12      775      520      957      957     4664     4665      957     5654
     5690        2        2        2       12      525      963      959      959     4694     6357      959     4693
     5691        2        2        2       12      521      519      958      958     4657     4660      958     4671
     5692        2        2        2       12      955      524      959      959     4689     4690      959     6338
     5693        2        2        2       12      774      517      956      956     4643     4645      956     5651
     5694        2        2        2       12      518      956      957      957     4651     6343      957     4652
     5695        2        2        2       12      963      960      968      968     6363     6365      968     6377
     5696        2        2        2       12      526      776      955      955     4699     5657      955     4700
! ... 24 like lines cut
esel,s,type,,2
keyop,2,2,1                ! Apply load in local coordinate system
keyop,2,7,1                ! Use original area so load is constant in large deformation
esel,all
/com,*********** Define Force Using Surface Effect Elements ***********
local,13,0,0.,0.,0.,0.,0.,0.
csys,0
et,3,154
eblock,10,,,41
(15i9)
     5720        3        3        3       13      978      981      985      985     6435     6448      985     6436
     5721        3        3        3       13      771      511      971      971     4609     4610      971     5640
     5722        3        3        3       13      973      978      980      980     6411     6434      980     6412
     5723        3        3        3       13      513      972      976      976     4620     6405      976     4621
     5724        3        3        3       13      977      975      980      980     6420     6421      980     6427
     5725        3        3        3       13      772      512      971      971     4613     4614      971     5643
     5726        3        3        3       13      971      510      977      977     4603     4605      977     6401
     5727        3        3        3       13      976      972      982      982     6405     6406      982     6424
     5728        3        3        3       13      971      984      972      972     6402     6407      972     6400
     5729        3        3        3       13      983      982      984      984     6450     6451      984     6453
     5730        3        3        3       13      985      981      983      983     6448     6447      983     6454
     5731        3        3        3       13      984      985      983      983     6456     6454      983     6453
     5732        3        3        3       13      516      979      515      515     4637     4633      515     4631
     5733        3        3        3       13      984      977      985      985     6428     6429      985     6456
     5734        3        3        3       13      515      979      974      974     4633     6416      974     4632
     5735        3        3        3       13      973      507      978      978     4581     4583      978     6411
     5736        3        3        3       13      977      980      985      985     6427     6443      985     6429
     5737        3        3        3       13      975      973      980      980     6410     6412      980     6421
     5738        3        3        3       13      508      509      975      975     4585     4596      975     4589
     5739        3        3        3       13      509      973      975      975     4595     6410      975     4596
! ... 22 like lines cut
esel,s,type,,3
keyop,3,2,1                ! Apply load in local coordinate system
keyop,3,7,1                ! Use original area so load is constant in large deformation
esel,all
/com,*********** Define Force Using Surface Effect Elements ***********
local,14,0,0.,0.,0.,0.,0.,0.
csys,0
et,4,154
eblock,10,,,41
(15i9)
     5761        4        4        4       14      536      948      535      535     4761     4757      535     4755
     5762        4        4        4       14      536      945      948      948     4760     6300      948     4761
     5763        4        4        4       14      950      948      952      952     6316     6317      952     6324
     5764        4        4        4       14      945      941      951      951     6283     6284      951     6301
     5765        4        4        4       14      951      941      953      953     6284     6285      953     6329
     5766        4        4        4       14      952      951      953      953     6328     6329      953     6331
     5767        4        4        4       14      948      945      952      952     6300     6302      952     6317
     5768        4        4        4       14      529      942      944      944     4719     6288      944     4720
     5769        4        4        4       14      940      530      946      946     4727     4729      946     6279
     5770        4        4        4       14      780      940      941      941     5669     6278      941     5670
     5771        4        4        4       14      949      947      954      954     6311     6313      954     6320
     5772        4        4        4       14      947      943      950      950     6293     6295      950     6312
     5773        4        4        4       14      536      533      945      945     4743     4745      945     4760
     5774        4        4        4       14      777      527      942      942     4704     4705      942     5659
     5775        4        4        4       14      944      942      949      949     6288     6290      949     6298
     5776        4        4        4       14      945      951      952      952     6301     6328      952     6302
     5777        4        4        4       14      527      943      947      947     4706     6293      947     4707
     5778        4        4        4       14      942      527      947      947     4705     4707      947     6289
     5779        4        4        4       14      946      953      940      940     6305     6280      940     6279
     5780        4        4        4       14      947      950      954      954     6312     6325      954     6313
! ... 22 like lines cut
esel,s,type,,4
keyop,4,2,1                ! Apply load in local coordinate system
keyop,4,7,1                ! Use original area so load is constant in large deformation
esel,all
/com,*********** Define Force Using Surface Effect Elements ***********
local,15,0,0.,0.,0.,0.,0.,0.
csys,0
et,5,154
eblock,10,,,43
(15i9)
     5802        5        5        5       15      506      768      986      986     4575     5631      986     4576
     5803        5        5        5       15      498      766      987      987     4526     5625      987     4527
     5804        5        5        5       15      766      497      987      987     4519     4521      987     5625
     5805        5        5        5       15      503      501      995      995     4546     4548      995     4558
     5806        5        5        5       15      497      506      986      986     4517     4576      986     4520
     5807        5        5        5       15      501      499      989      989     4533     4536      989     4547
     5808        5        5        5       15      991      503      995      995     4557     4558      995     6486
     5809        5        5        5       15      502      503      991      991     4551     4557      991     4553
     5810        5        5        5       15      993      988      996      996     6469     6470      996     6493
     5811        5        5        5       15      995      989      997      997     6474     6475      997     6501
     5812        5        5        5       15      998      999      997      997     6514     6511      997     6510
     5813        5        5        5       15      989      993      997      997     6473     6494      997     6475
     5814        5        5        5       15     1000      998     1001     1001     6515     6516     1001     6519
     5815        5        5        5       15      997      993     1001     1001     6494     6495     1001     6512
     5816        5        5        5       15      988      987      996      996     6465     6467      996     6470
     5817        5        5        5       15      997     1001      998      998     6512     6516      998     6510
     5818        5        5        5       15      996     1000     1001     1001     6505     6519     1001     6506
     5819        5        5        5       15      767      500      988      988     4540     4541      988     5628
     5820        5        5        5       15      996      992     1000     1000     6489     6490     1000     6505
     5821        5        5        5       15      995      997      999      999     6501     6511      999     6502
! ... 24 like lines cut
esel,s,type,,5
keyop,5,2,1                ! Apply load in local coordinate system
keyop,5,7,1                ! Use original area so load is constant in large deformation
esel,all
/gst,on,on
fini
*get,_numnode,node,0,count
*get,_numelem,elem,0,count
*get, _MAXELEMNUM, elem, 0, NUM, MAX
*get, _MAXNODENUM, node, 0, NUM, MAX
*get, _MAXELEMTYPE, etyp, 0, NUM, MAX
*get, _MAXREALCONST, rcon, 0, NUM, MAX
/go
/wb,load,end               !  done creating loads
/com,--- Number of total nodes = %_numnode%
/com,--- Number of contact elements = 168
/com,--- Number of spring elements = 0
/com,--- Number of bearing elements = 0
/com,--- Number of solid elements = 3486
/com,--- Number of condensed parts = 0
/com,--- Number of total elements = %_numelem%
*get,_wallbsol,active,,time,wall
/com,****************************************************************************
/com,*************************    SOLUTION       ********************************
/com,****************************************************************************
/solu
antype,0                   ! static analysis
_thickRatio=  0     ! Ratio of thick parts in the model
eqsl,sparse,,,,,1
cntr,print,1               ! print out contact info and also make no initial contact an error
dmpoption,emat,no             ! Don't combine emat file for DANSYS
dmpoption,esav,no             ! Don't combine esav file for DANSYS
nldiag,cont,iter           ! print out contact info each equilibrium iteration
rescontrol,,none                 ! Do not keep any restart files
/com,****************************************************
/com,******************* SOLVE FOR LS 1 OF 1 ****************
esel,s,type,,2
nsle
sfe,all,1,pres,1,-1542.47169302323
sfe,all,2,pres,1,-1050.63356123836
sfe,all,3,pres,1,-97.5678412762873
esel,s,type,,3
nsle
sfe,all,1,pres,1,-6.05536112429116
sfe,all,2,pres,1,-1088.64753206249
sfe,all,3,pres,1,-1519.90156610099
esel,s,type,,4
nsle
sfe,all,1,pres,1,6.05536099370213
sfe,all,2,pres,1,-1088.64750858487
sfe,all,3,pres,1,1519.90153332302
esel,s,type,,5
nsle
sfe,all,1,pres,1,1542.47222978462
sfe,all,2,pres,1,-1050.63392684607
sfe,all,3,pres,1,97.5678752287098
nsel,all
esel,all
/nopr
/gopr
nsub,1,1,1
time,1.
outres,erase
outres,all,none
outres,nsol,all,
outres,rsol,all
outres,eangl,all
outres,etmp,all
outres,veng,all
outres,strs,all,
outres,epel,all,
outres,eppl,all,
outres,cont,all,
! *********** WB SOLVE COMMAND ***********
! check interactive state
*get,ANSINTER_,active,,int
*if,ANSINTER_,ne,0,then
/eof
*endif
solve
/com *************** Write FE CONNECTORS ********* 
CEWRITE,file,ce,,INTE
/com,****************************************************
/com,*************** FINISHED SOLVE FOR LS 1 *************
*get,_wallasol,active,,time,wall
/nopr
*get,_numnode,node,0,count
*get,_numelem,elem,0,count
*get, _MAXELEMNUM, elem, 0, NUM, MAX
*get, _MAXNODENUM, node, 0, NUM, MAX,,,INTERNAL
*get, _MAXELEMTYPE, etyp, 0, NUM, MAX
*get, _MAXREALCONST, rcon, 0, NUM, MAX
*get,_NSOLTHREADS,active,0,ntfs
*get,_NSOLPROCESSES,active,0,npfs
/gopr
/post1
xmlo,ENCODING,ISO-8859-1
xmlo,parm
/xml,parm,xml
fini
/gopr
*get,_walldone,active,,time,wall
_preptime=(_wallbsol-_wallstrt)*3600
_solvtime=(_wallasol-_wallbsol)*3600
_posttime=(_walldone-_wallasol)*3600
_totaltim=(_walldone-_wallstrt)*3600
*get,_dlbratio,active,0,solu,dlbr
*get,_combtime,active,0,solu,comb
*get,_ssmode,active,0,solu,ssmm
*get,_ndofs,active,0,solu,ndof
*get,_sol_end_time,active,0,set,time
*if,_sol_end_time,eq,1.000000,then
/fclean				!clean distributed files
*endif
/com,--- Total number of nodes = %_numnode%
/com,--- Total number of elements = %_numelem%
/com,--- Element load balance ratio = %_dlbratio%
/com,--- Time to combine distributed files = %_combtime%
/com,--- Sparse memory mode = %_ssmode%
/com,--- Number of DOF = %_ndofs%
/wb,file,end               ! done with WB generated input
